CIUDAD ACUNA INTERNATIONAL
CAMPO DELIO JARDIM DE MATTOS
AMAPA
ARARAQUARA
SANTA MARIA
ASSIS
ALTA FLORESTA
ARACATUBA
USINA PORTO PRIMAVERA
VAL DE CAES
COMANDANTE GUSTAVO KRAEMER
PAMPULHA
BACACHERI
MAJOR BRIGADEIRO DOORGAL BORGES
PRESIDENTE JUSCELINO KUBITSCHEK
BAURU
BOA VISTA
BARRA DO GARCAS
CASCAVEL
CACHIMBO
TANCREDO NEVES
CAMPO GRANDE
CHAPECO
CAROLINA
FORQUILHINHA
CANOAS
BARTOLOMEU LISANDRO
CORUMBA INTERNATIONAL
AFONSO PENA
CARAVELAS
CAMPO DOS BUGRES
MARECHAL RONDON
CRUZEIRO DO SUL
PRESIDENTE PRUDENTE
EDUARDO GOMES INTERNATIONAL
JACAREACANGA
SAO PEDRO DA ALDEIA
FRANCA
CATARATAS INTERNATIONAL
HERCILIO LUZ
FERNANDO DE NORONHA
FRONTEIRA
FURNAS
PINTO MARTINS INTERNATIONAL
GALEAO ANTONIO CARLOS JOBIM
GUAJARA MIRIM
SANTA GENOVEVA
GUARULHOS
PONTA GROSSA
GUARATINGUETA
ALTAMIRA
ITACOATIARA
ITAITUBA
ILHEUS
USIMINAS
HIDROELETRICA
IMPERATRIZ
JULIO CESAR
FRANCISCO DE ASSIS
INTL. PRES. CASTRO PINTO
JOINVILLE
VIRACOPOS
LAGES
LINS
LONDRINA
BOM JESUS DA LAPA
LAGOA SANTA
MARABA
MONTE DOURADO
MARINGA
MONTES CLAROS
MARILIA
PONTA PELADA
ZUMBI DOS PALMARES
MACAPA
DIX SEPT ROSADO
MARTE
MANICORE
NAVEGANTES ITAJAI
SANTO ANGELO
AUGUSTO SEVERO
OIAPOQUE
SALGADO FILHO
PARNAIBA
POCOS DE CALDAS
LAURO KURTZ
PELOTAS
PETROLINA
PORTO NACIONAL
PONTA PORA
GOVERNADOR JORGE TEIXEIRA DE OLIVEIRA
VITORIA DA CONQUISTA
PRESIDENTE MEDICI
GUARARAPES
RIO GRANDE
SANTOS DUMONT
LEITE LOPES
SANTA CRUZ
SAO JOSE DOS CAMPOS
MARECHAL CUNHA MACHADO
SANTA MARIA
CONGONHAS
SAO JOSE DO RIO PRETO
SANTOS AIR BASE
DEPUTADO LUIS EDUARDO MAGALHAES
TROMBETAS
SENADOR PETRONIO PORTELLA
TEFE
TARAUACA
TELEMACO BORBA
TIRIOS
TABATINGA
TUCURUI
SAO GABRIEL DA CACHOEIRA
PAULO AFONSO
RUBEM BERTA
UBERLANDIA
URUBUPUNGA
UBERABA
MAJOR BRIGADEIRO TROMPOWSKY
VILHENA
GOIABEIRAS
IAUARETE
CAMPO FONTENELLE
